-------------------------------------------------------
          Amber 20 PMEMD                              2020
          -------------------------------------------------------

  [-O]verwriting output

File Assignments:

 Here is the input file:

Heating the system
&cntrl
  imin   = 0,
  irest  = 0,
  ntx    = 1,
  ntb    = 1,
  ntr    = 1,
  ntc    = 2,
  ntf    = 2,
  tempi  = 0.0,
  cut    = 8.,
  temp0  = 293.0,
  ntt    = 1,
  nstlim = 10000, dt = 0.002,
  ntpr = 50, ntwx = 200, ntwr = 1000,
  ioutfm = 1
 /
Keep protein fixed with weak restraints
10.0
RES 1 264
END
END

Note: ig = -1. Setting random seed to   494727 based on wallclock time in
      microseconds.

--------------------------------------------------------------------------------
   1.  RESOURCE   USE:
--------------------------------------------------------------------------------

 getting box info from netcdf restart file
 NATOM  =    6499 NTYPES =      14 NBONH =    4547 MBONA  =    1976
 NTHETH =    4768 MTHETA =    2700 NPHIH =    9192 MPHIA  =    8976
 NHPARM =       0 NPARM  =       0 NNB   =   25660 NRES   =    1081
 NBONA  =    1976 NTHETA =    2700 NPHIA =    8976 NUMBND =      49
 NUMANG =     115 NPTRA  =     149 NATYP =      23 NPHB   =       1
 IFBOX  =       1 NMXRS  =      24 IFCAP =       0 NEXTRA =       0
 NCOPY  =       0

     BOX TYPE: RECTILINEAR

--------------------------------------------------------------------------------
   2.  CONTROL  DATA  FOR  THE  RUN
--------------------------------------------------------------------------------

default_name

General flags:
     imin    =       0, nmropt  =       0

Nature and format of input:
     ntx     =       1, irest   =       0, ntrx    =       1

Nature and format of output:
     ntxo    =       2, ntpr    =      50, ntrx    =       1, ntwr    =    1000
     iwrap   =       0, ntwx    =     200, ntwv    =       0, ntwe    =       0
     ioutfm  =       1, ntwprt  =       0, idecomp =       0, rbornstat=      0

Potential function:
     ntf     =       2, ntb     =       1, igb     =       0, nsnb    =      25
     ipol    =       0, gbsa    =       0, iesp    =       0
     dielc   =   1.00000, cut     =   8.00000, intdiel =   1.00000

Frozen or restrained atoms:
     ibelly  =       0, ntr     =       1
     restraint_wt =   0.00000

Molecular dynamics:
     nstlim  =     10000, nscm    =         0, nrespa  =         1
     t       =   0.00000, dt      =   0.00200, vlimit  =  -1.00000

Berendsen (weak-coupling) temperature regulation:
     temp0   = 293.00000, tempi   =   0.00000, tautp   =   1.00000

SHAKE:
     ntc     =       2, jfastw  =       0
     tol     =   0.00001

Ewald parameters:
     verbose =       0, ew_type =       0, nbflag  =       1, use_pme =       1
     vdwmeth =       1, eedmeth =       1, netfrc  =       1
     Box X =   33.270   Box Y =   39.890   Box Z =   44.540
     Alpha =   90.000   Beta  =   90.000   Gamma =   90.000
     NFFT1 =   36       NFFT2 =   40       NFFT3 =   48
     Cutoff=    8.000   Tol   =0.100E-04
     Ewald Coefficient =  0.34864
     Interpolation order =    4

    LOADING THE CONSTRAINED ATOMS AS GROUPS

   5.  REFERENCE ATOM COORDINATES

  default_name
    ----- READING GROUP     1; TITLE:
 Keep protein fixed with weak restraints

     GROUP    1 HAS HARMONIC CONSTRAINTS    10.00000
 GRP    1 RES    1 TO   264
      Number of atoms in this group  =  4048
    ----- END OF GROUP READ -----

--------------------------------------------------------------------------------
   3.  ATOMIC COORDINATES AND VELOCITIES
--------------------------------------------------------------------------------

default_name
 begin time read from input coords =     0.000 ps

 Number of triangulated 3-point waters found:      817

     Sum of charges from parm topology file =  -0.00000012
     Forcing neutrality...

--------------------------------------------------------------------------------
   4.  RESULTS
 NSTEP =        0   TIME(PS) =       0.000  TEMP(K) =     0.00  PRESS =     0.0
 Etot   =    -18880.6160  EKtot   =         0.0000  EPtot      =    -18880.6160
 BOND   =       131.1370  ANGLE   =       490.1925  DIHED      =      3052.0487
 1-4 NB =       780.9198  1-4 EEL =      9548.5248  VDWAALS    =      -999.7545
 EELEC  =    -31883.6844  EHBOND  =         0.0000  RESTRAINT  =         0.0000
 ------------------------------------------------------------------------------

      A V E R A G E S   O V E R     200 S T E P S

 NSTEP =    10000   TIME(PS) =      20.000  TEMP(K) =   266.36  PRESS =     0.0
 Etot   =     -9902.8640  EKtot   =      3956.6177  EPtot      =    -13859.4817
 BOND   =       479.7990  ANGLE   =      1303.6248  DIHED      =      3213.8677
 1-4 NB =       850.9104  1-4 EEL =      9519.4027  VDWAALS    =     -1556.1480
 EELEC  =    -28381.1554  EHBOND  =         0.0000  RESTRAINT  =       710.2171
 EAMBER (non-restraint)  =    -14569.6988
 ------------------------------------------------------------------------------

      R M S  F L U C T U A T I O N S

 NSTEP =    10000   TIME(PS) =      20.000  TEMP(K) =    53.79  PRESS =     0.0
 Etot   =      1616.4510  EKtot   =       798.9898  EPtot      =       821.2609
 BOND   =       151.3707  ANGLE   =       336.9824  DIHED      =        50.2930
 1-4 NB =        21.4312  1-4 EEL =        23.8307  VDWAALS    =        85.1281
 EELEC  =       394.2080  EHBOND  =         0.0000  RESTRAINT  =       162.2204
 EAMBER (non-restraint)  =       659.0405
 ------------------------------------------------------------------------------
