-------------------------------------------------------
          Amber 20 PMEMD                              2020
          -------------------------------------------------------

  [-O]verwriting output

File Assignments:

 Here is the input file:

Production stage (NPT)
 &cntrl
  imin = 0,
  irest = 1, ntx = 5, iwrap = 1,
  ntb = 1,
  ntt = 3, gamma_ln = 3., ig = -1,
  tempi = 298.0, temp0 = 298.0,
  ntp = 0, pres0 = 1.0, taup = 2.0,
  cut = 8.0,
  ntr = 0,
  ntc = 2, ntf = 2,
  nstlim = 5000, nscm = 100, dt = 0.002,
  ntpr = 100, ntwx = 100, ntwr = 5000,
  ioutfm = 1
/
&xray
  spacegroup_name='P1',
  pdb_infile = 'uc.pdb',
  pdb_read_coordinates=.false.,
  reflection_infile = 'real.dat',
  atom_selection_mask = ':1-264',
  xray_weight_initial = 0.,
  xray_weight_final = 1.,
  bulk_solvent_model='afonine-2013',
  target='ml',
/

Note: ig = -1. Setting random seed to   957744 based on wallclock time in
      microseconds.

--------------------------------------------------------------------------------
   1.  RESOURCE   USE:
--------------------------------------------------------------------------------

 getting box info from netcdf restart file
 NATOM  =    6499 NTYPES =      14 NBONH =    4547 MBONA  =    1976
 NTHETH =    4768 MTHETA =    2700 NPHIH =    9192 MPHIA  =    8976
 NHPARM =       0 NPARM  =       0 NNB   =   25660 NRES   =    1081
 NBONA  =    1976 NTHETA =    2700 NPHIA =    8976 NUMBND =      49
 NUMANG =     115 NPTRA  =     149 NATYP =      23 NPHB   =       1
 IFBOX  =       1 NMXRS  =      24 IFCAP =       0 NEXTRA =       0
 NCOPY  =       0

 XRAY_SYMMETRY_TYPE not found in PRMTOP file; assuming P1

     BOX TYPE: RECTILINEAR

--------------------------------------------------------------------------------
   2.  CONTROL  DATA  FOR  THE  RUN
--------------------------------------------------------------------------------

default_name

General flags:
     imin    =       0, nmropt  =       0

Nature and format of input:
     ntx     =       5, irest   =       1, ntrx    =       1

Nature and format of output:
     ntxo    =       2, ntpr    =     100, ntrx    =       1, ntwr    =    5000
     iwrap   =       1, ntwx    =     100, ntwv    =       0, ntwe    =       0
     ioutfm  =       1, ntwprt  =       0, idecomp =       0, rbornstat=      0

Potential function:
     ntf     =       2, ntb     =       1, igb     =       0, nsnb    =      25
     ipol    =       0, gbsa    =       0, iesp    =       0
     dielc   =   1.00000, cut     =   8.00000, intdiel =   1.00000

Frozen or restrained atoms:
     ibelly  =       0, ntr     =       0

Molecular dynamics:
     nstlim  =      5000, nscm    =       100, nrespa  =         1
     t       =   0.00000, dt      =   0.00200, vlimit  =  -1.00000

Langevin dynamics temperature regulation:
     ig      =  957744
     temp0   = 298.00000, tempi   = 298.00000, gamma_ln=   3.00000

SHAKE:
     ntc     =       2, jfastw  =       0
     tol     =   0.00001

Ewald parameters:
     verbose =       0, ew_type =       0, nbflag  =       1, use_pme =       1
     vdwmeth =       1, eedmeth =       1, netfrc  =       1
     Box X =   33.270   Box Y =   39.890   Box Z =   44.540
     Alpha =   90.000   Beta  =   90.000   Gamma =   90.000
     NFFT1 =   36       NFFT2 =   40       NFFT3 =   48
     Cutoff=    8.000   Tol   =0.100E-04
     Ewald Coefficient =  0.34864
     Interpolation order =    4

X-ray Refinement Parameters:
     PDB InFile: uc.pdb
     PDB Read Coordinates: F
     PDB Use SegID: F
     PDB Wrap Names: F
     Spacegroup: P 1
     Reflection InFile: real.dat
     X-ray weights:  0.000E+00 ...  0.100E+01
     Use target: ml
     Scale update Interval:   100
     Solvent Mask Update Interval:   100
     Solvent scale:   0.350, B-factor:  46.000
     Atom Selection Mask: :1-264

--------------------------------------------------------------------------------
   3.  ATOMIC COORDINATES AND VELOCITIES
--------------------------------------------------------------------------------

default_name
 begin time read from input coords =    20.000 ps

PDB: missing data for 2451 atoms.
PDB: Missing ATOM: O    ALA      2
PDB: Missing ATOM: H1   GLN      3
PDB: Missing ATOM: H2   ALA      2
PDB: Missing ATOM: O    ALA      2
PDB: Missing ATOM: H1   GLN      3
PDB: Missing ATOM: H2   ALA      2
PDB: Missing ATOM: O    ALA      2
PDB: Missing ATOM: H1   ALA      4
PDB: Missing ATOM: H2   GLN      3
PDB: Missing ATOM: O    ALA      2
XRAY: UNIT CELL=    33.270   39.890   44.540  90.00  90.00  90.00
Found   4048 atoms in :1-264;
 atomic size       17725           5
 Number of triangulated 3-point waters found:      817

     Sum of charges from parm topology file =  -0.00000012
     Forcing neutrality...

--------------------------------------------------------------------------------
   4.  RESULTS
 NSTEP =      100   TIME(PS) =      20.200  TEMP(K) =   289.27  PRESS =     0.0
 Etot   =     -7659.8250  EKtot   =      4296.8799  EPtot      =    -11956.7049
 BOND   =       690.3035  ANGLE   =      1897.5106  DIHED      =      3384.6213
 1-4 NB =       905.6016  1-4 EEL =      9592.8791  VDWAALS    =     -1544.0920
 EELEC  =    -28456.1510  EHBOND  =         0.0000  RESTRAINT  =      1572.6221
 Exray  =      1572.6221  Rwork   =         0.3521  Rfree      =         0.3482
 EAMBER (non-restraint)  =    -13529.3270
 ------------------------------------------------------------------------------

      A V E R A G E S   O V E R      50 S T E P S

 NSTEP =     5000   TIME(PS) =      30.000  TEMP(K) =   299.44  PRESS =     0.0
 Etot   =     28429.0623  EKtot   =      4448.0051  EPtot      =     23981.0572
 BOND   =       682.5689  ANGLE   =      1981.1678  DIHED      =      3318.2585
 1-4 NB =       996.6480  1-4 EEL =      9693.3544  VDWAALS    =     -1454.1924
 EELEC  =    -28810.6425  EHBOND  =         0.0000  RESTRAINT  =     37573.8945
 Exray  =     73005.4060  Rwork   =         0.2210  Rfree      =         0.2539
 EAMBER (non-restraint)  =    -13592.8373
 ------------------------------------------------------------------------------

      R M S  F L U C T U A T I O N S

 NSTEP =     5000   TIME(PS) =      30.000  TEMP(K) =     3.54  PRESS =     0.0
 Etot   =     20904.1583  EKtot   =        52.5297  EPtot      =     20889.8144
 BOND   =        20.2525  ANGLE   =        37.4349  DIHED      =        23.8922
 1-4 NB =        44.0585  1-4 EEL =        74.1725  VDWAALS    =        45.1548
 EELEC  =       115.9962  EHBOND  =         0.0000  RESTRAINT  =     20902.4192
 Exray  =     73005.4060  Rwork   =         0.2210  Rfree      =         0.2539
 EAMBER (non-restraint)  =       -12.6048
 ------------------------------------------------------------------------------
