-------------------------------------------------------
          Amber 11 SANDER                              2010
          -------------------------------------------------------

  [-O]verwriting output

File Assignments:

 Here is the input file:

Standard MD run input
 &cntrl

  nmropt = 0,
  ntx    = 1,       irest  = 0,
  ntrx   = 1,       ntxo   = 1,
  ntpr   = 100,     ntwx   = 0,
  ntwv   = 0,       ntwe   = 0,

  ntf    = 2,       ntb    = 1,
  cut   =  8.0,

  imin=0, maxcyc=500, ncyc=250,
  nstlim = 1000,
  nscm   = 10000,
  t      = 0.0,     dt     = 0.001,

  temp0     = 297.0,   tempi  = 297.0,
  ig        = -1,
  ntt       = 3,  gamma_ln=5.0,

  ntc    = 2,       tol    = 0.000001, watnam = 'WAT ',
  ntr=1, restraint_wt=25.0, restraintmask=':1-302',

 /

Note: ig = -1. Setting random seed based on wallclock time in microseconds.

--------------------------------------------------------------------------------
   1.  RESOURCE   USE:
--------------------------------------------------------------------------------

 getting new box info from bottom of inpcrd

 NATOM  =   10224 NTYPES =      18 NBONH =    7896 MBONA  =    2368
 NTHETH =    5584 MTHETA =    3206 NPHIH =   10238 MPHIA  =    8126
 NHPARM =       0 NPARM  =       0 NNB   =   33770 NRES   =    2122
 NBONA  =    2368 NTHETA =    3206 NPHIA =    8126 NUMBND =      49
 NUMANG =     103 NPTRA  =      59 NATYP =      33 NPHB   =       1
 IFBOX  =       1 NMXRS  =      24 IFCAP =       0 NEXTRA =       0
 NCOPY  =       0

     BOX TYPE: RECTILINEAR

--------------------------------------------------------------------------------
   2.  CONTROL  DATA  FOR  THE  RUN
--------------------------------------------------------------------------------

General flags:
     imin    =       0, nmropt  =       0

Nature and format of input:
     ntx     =       1, irest   =       0, ntrx    =       1

Nature and format of output:
     ntxo    =       2, ntpr    =     100, ntrx    =       1, ntwr    =     500
     iwrap   =       0, ntwx    =       0, ntwv    =       0, ntwe    =       0
     ioutfm  =       1, ntwprt  =       0, idecomp =       0, rbornstat=      0

Potential function:
     ntf     =       2, ntb     =       1, igb     =       0, nsnb    =      25
     ipol    =       0, gbsa    =       0, iesp    =       0
     dielc   =   1.00000, cut     =   8.00000, intdiel =   1.00000

Frozen or restrained atoms:
     ibelly  =       0, ntr     =       1
     restraint_wt =  25.00000

Molecular dynamics:
     nstlim  =      1000, nscm    =         0, nrespa  =         1
     t       =   0.00000, dt      =   0.00100, vlimit  =  20.00000

Langevin dynamics temperature regulation:
     ig      =  382084
     temp0   = 297.00000, tempi   = 297.00000, gamma_ln=   5.00000

SHAKE:
     ntc     =       2, jfastw  =       0
     tol     =   0.00000

Ewald parameters:
     verbose =       0, ew_type =       0, nbflag  =       1, use_pme =       1
     vdwmeth =       1, eedmeth =       1, netfrc  =       1
     Box X =   38.950   Box Y =   47.444   Box Z =   55.550
     Alpha =   76.220   Beta  =   72.250   Gamma =   81.960
     NFFT1 =   40       NFFT2 =   48       NFFT3 =   60
     Cutoff=    8.000   Tol   =0.100E-04
     Ewald Coefficient =  0.34864
     Interpolation order =    4
     Setting ifbox to 3 for non-orthogonal unit cell

    LOADING THE CONSTRAINED ATOMS AS GROUPS

   5.  REFERENCE ATOM COORDINATES

     Mask :1-302; matches  4764 atoms

--------------------------------------------------------------------------------
   3.  ATOMIC COORDINATES AND VELOCITIES
--------------------------------------------------------------------------------

 begin time read from input coords =     0.000 ps

 Number of triangulated 3-point waters found:     1820

     Sum of charges from parm topology file =  -6.00000213
     Assuming uniform neutralizing plasma

--------------------------------------------------------------------------------
   4.  RESULTS
 NSTEP =        0   TIME(PS) =       0.000  TEMP(K) =   399.69  PRESS =     0.0
 Etot   =    -13620.3096  EKtot   =      9045.0394  EPtot      =    -22665.3490
 BOND   =        91.4354  ANGLE   =       515.2823  DIHED      =      1213.9205
 1-4 NB =      1201.1597  1-4 EEL =     15140.7282  VDWAALS    =       -43.9767
 EELEC  =    -40783.8985  EHBOND  =         0.0000  RESTRAINT  =         0.0000
 Ewald error estimate:   0.8183E-05
 ------------------------------------------------------------------------------

      A V E R A G E S   O V E R      10 S T E P S

 NSTEP =     1000   TIME(PS) =       1.000  TEMP(K) =   316.67  PRESS =     0.0
 Etot   =    -19242.3742  EKtot   =      7166.3603  EPtot      =    -26408.7345
 BOND   =       660.7004  ANGLE   =      1714.6151  DIHED      =      1430.2083
 1-4 NB =      1208.0133  1-4 EEL =     15053.5293  VDWAALS    =       363.2420
 EELEC  =    -48112.0289  EHBOND  =         0.0000  RESTRAINT  =      1272.9860
 EAMBER (non-restraint)  =    -27681.7205
 Ewald error estimate:   0.9069E-04
 ------------------------------------------------------------------------------

      R M S  F L U C T U A T I O N S

 NSTEP =     1000   TIME(PS) =       1.000  TEMP(K) =    15.71  PRESS =     0.0
 Etot   =      1375.7027  EKtot   =       355.4965  EPtot      =      1021.9223
 BOND   =        49.0131  ANGLE   =       113.0346  DIHED      =        18.3204
 1-4 NB =         7.9682  1-4 EEL =        17.7455  VDWAALS    =       193.5377
 EELEC  =      1402.5995  EHBOND  =         0.0000  RESTRAINT  =        57.4460
 EAMBER (non-restraint)  =       964.4764
 Ewald error estimate:   0.8175E-04
 ------------------------------------------------------------------------------
