-------------------------------------------------------
          Amber 18 SANDER                              2018
          -------------------------------------------------------

  [-O]verwriting output

File Assignments:

 Here is the input file:

Test of MD with Xray restraints
 &cntrl
  ntx = 1, irest = 0, ntpr = 100,
  ntc = 2, ntf = 2, tol = 0.000001,
  cut = 8.0,
  nstlim = 5000, dt = 0.002,
  temp0 = 297.0, tempi = 297.0,
  ig = 12345,
  ntt = 3,  gamma_ln=5.0,
  imin=0, maxcyc=100,
 /

--------------------------------------------------------------------------------
   1.  RESOURCE   USE:
--------------------------------------------------------------------------------

 getting box info from netcdf restart file
 NATOM  =   10224 NTYPES =      18 NBONH =    7896 MBONA  =    2368
 NTHETH =    5584 MTHETA =    3206 NPHIH =   10238 MPHIA  =    8126
 NHPARM =       0 NPARM  =       0 NNB   =   33770 NRES   =    2122
 NBONA  =    2368 NTHETA =    3206 NPHIA =    8126 NUMBND =      49
 NUMANG =     103 NPTRA  =      59 NATYP =      33 NPHB   =       1
 IFBOX  =       1 NMXRS  =      24 IFCAP =       0 NEXTRA =       0
 NCOPY  =       0

     BOX TYPE: RECTILINEAR

--------------------------------------------------------------------------------
   2.  CONTROL  DATA  FOR  THE  RUN
--------------------------------------------------------------------------------

General flags:
     imin    =       0, nmropt  =       0

Nature and format of input:
     ntx     =       1, irest   =       0, ntrx    =       1

Nature and format of output:
     ntxo    =       2, ntpr    =     100, ntrx    =       1, ntwr    =    5000
     iwrap   =       0, ntwx    =       0, ntwv    =       0, ntwe    =       0
     ioutfm  =       1, ntwprt  =       0, idecomp =       0, rbornstat=      0

Potential function:
     ntf     =       2, ntb     =       1, igb     =       0, nsnb    =      25
     ipol    =       0, gbsa    =       0, iesp    =       0
     dielc   =   1.00000, cut     =   8.00000, intdiel =   1.00000

Frozen or restrained atoms:
     ibelly  =       0, ntr     =       0

Molecular dynamics:
     nstlim  =      5000, nscm    =      1000, nrespa  =         1
     t       =   0.00000, dt      =   0.00200, vlimit  =  20.00000

Langevin dynamics temperature regulation:
     ig      =   12345
     temp0   = 297.00000, tempi   = 297.00000, gamma_ln=   5.00000

SHAKE:
     ntc     =       2, jfastw  =       0
     tol     =   0.00000

Ewald parameters:
     verbose =       0, ew_type =       0, nbflag  =       1, use_pme =       1
     vdwmeth =       1, eedmeth =       1, netfrc  =       1
     Box X =   38.950   Box Y =   47.444   Box Z =   55.550
     Alpha =   76.220   Beta  =   72.250   Gamma =   81.960
     NFFT1 =   40       NFFT2 =   48       NFFT3 =   60
     Cutoff=    8.000   Tol   =0.100E-04
     Ewald Coefficient =  0.34864
     Interpolation order =    4
     Setting ifbox to 3 for non-orthogonal unit cell

--------------------------------------------------------------------------------
   3.  ATOMIC COORDINATES AND VELOCITIES
--------------------------------------------------------------------------------

 begin time read from input coords =     0.000 ps

 Number of triangulated 3-point waters found:     1820

     Sum of charges from parm topology file =  -6.00000213
     Assuming uniform neutralizing plasma

--------------------------------------------------------------------------------
   4.  RESULTS
 NSTEP =        0   TIME(PS) =       0.000  TEMP(K) =   408.10  PRESS =     0.0
 Etot   =     -4264.7617  EKtot   =      9235.3992  EPtot      =    -13500.1609
 BOND   =       151.9013  ANGLE   =       646.6219  DIHED      =      1276.6334
 1-4 NB =      1224.3744  1-4 EEL =     15164.3977  VDWAALS    =      2163.0142
 EELEC  =    -34127.1038  EHBOND  =         0.0000  RESTRAINT  =         0.0000
 Ewald error estimate:   0.1494E-04
 ------------------------------------------------------------------------------

      A V E R A G E S   O V E R    5000 S T E P S

 NSTEP =     5000   TIME(PS) =      10.000  TEMP(K) =   304.18  PRESS =     0.0
 Etot   =    -21895.1164  EKtot   =      6883.7283  EPtot      =    -28778.8447
 BOND   =       870.0746  ANGLE   =      2411.1321  DIHED      =      1651.0062
 1-4 NB =      1099.8000  1-4 EEL =     14782.6083  VDWAALS    =       722.7611
 EELEC  =    -50316.2269  EHBOND  =         0.0000  RESTRAINT  =         0.0000
 Ewald error estimate:   0.7802E-04
 ------------------------------------------------------------------------------

      R M S  F L U C T U A T I O N S

 NSTEP =     5000   TIME(PS) =      10.000  TEMP(K) =    27.93  PRESS =     0.0
 Etot   =      2019.0646  EKtot   =       632.0364  EPtot      =      1426.3354
 BOND   =        41.9532  ANGLE   =        77.0269  DIHED      =        25.6112
 1-4 NB =        19.2951  1-4 EEL =        40.2733  VDWAALS    =       256.7459
 EELEC  =      1645.0295  EHBOND  =         0.0000  RESTRAINT  =         0.0000
 Ewald error estimate:   0.5288E-04
 ------------------------------------------------------------------------------
